Version 4
SHEET 1 8328 4660
WIRE 512 32 288 32
WIRE 32 64 -128 64
WIRE 32 80 32 64
WIRE 368 128 368 96
WIRE -128 144 -128 64
WIRE 288 144 288 32
WIRE 336 144 288 144
WIRE 512 160 512 32
WIRE 512 160 400 160
WIRE 576 160 512 160
WIRE 624 160 576 160
WIRE 736 160 688 160
WIRE 864 160 816 160
WIRE 928 160 864 160
WIRE 960 160 928 160
WIRE 32 176 32 160
WIRE 192 176 32 176
WIRE 336 176 192 176
WIRE 32 192 32 176
WIRE 960 208 960 160
WIRE 368 224 368 192
WIRE 576 256 576 160
WIRE 1728 304 1520 304
WIRE 2016 304 1728 304
WIRE -128 320 -128 224
WIRE 32 320 32 272
WIRE 32 320 -128 320
WIRE 176 320 32 320
WIRE 960 320 960 288
WIRE 1520 320 1520 304
WIRE 1728 320 1728 304
WIRE 176 352 176 320
WIRE 576 368 576 336
WIRE 736 368 576 368
WIRE 2464 368 2464 352
WIRE 2480 368 2464 368
WIRE 1872 384 1872 368
WIRE 1888 384 1872 384
WIRE 2464 384 2464 368
WIRE 2480 384 2480 368
WIRE 1872 400 1872 384
WIRE 1888 400 1888 384
WIRE 2432 400 2400 400
WIRE 576 416 576 368
WIRE 1520 416 1520 400
WIRE 1632 416 1520 416
WIRE 1840 416 1632 416
WIRE 2720 416 2496 416
WIRE 2800 416 2720 416
WIRE 80 432 0 432
WIRE 2016 432 2016 304
WIRE 2016 432 1904 432
WIRE 2192 432 2016 432
WIRE 2432 432 2192 432
WIRE 864 448 864 160
WIRE 928 448 864 448
WIRE 1072 448 1008 448
WIRE 1136 448 1072 448
WIRE 1264 448 1216 448
WIRE 1520 448 1520 416
WIRE 1728 448 1728 400
WIRE 1840 448 1728 448
WIRE 80 464 80 432
WIRE 2448 464 2448 448
WIRE 2464 464 2464 448
WIRE 2464 464 2448 464
WIRE 2480 464 2480 448
WIRE 2480 464 2464 464
WIRE 1728 480 1728 448
WIRE 1856 480 1856 464
WIRE 1872 480 1872 464
WIRE 1872 480 1856 480
WIRE 1888 480 1888 464
WIRE 1888 480 1872 480
WIRE 2464 480 2464 464
WIRE -128 496 -128 448
WIRE 0 496 0 432
WIRE 1872 496 1872 480
WIRE 2400 496 2400 400
WIRE 1520 528 1520 512
WIRE 576 544 576 496
WIRE 1136 560 1136 528
WIRE 1072 576 1072 448
WIRE 1104 576 1072 576
WIRE 1264 592 1264 448
WIRE 1264 592 1168 592
WIRE 1408 592 1264 592
WIRE 1728 592 1728 560
WIRE 1728 592 1408 592
WIRE -128 608 -128 576
WIRE 0 608 0 576
WIRE 736 608 736 368
WIRE 1056 608 736 608
WIRE 1104 608 1056 608
WIRE 1136 656 1136 624
WIRE 1056 736 1056 608
WIRE 1104 736 1056 736
WIRE 1200 736 1168 736
WIRE 2080 800 1888 800
WIRE 1072 816 880 816
WIRE 1968 896 1968 864
WIRE 480 912 480 896
WIRE 496 912 480 912
WIRE 960 912 960 880
WIRE 1888 912 1888 800
WIRE 1936 912 1888 912
WIRE 480 928 480 912
WIRE 496 928 496 912
WIRE 880 928 880 816
WIRE 928 928 880 928
WIRE 2080 928 2080 800
WIRE 2080 928 2000 928
WIRE 2176 928 2080 928
WIRE 2320 928 2176 928
WIRE 2528 928 2496 928
WIRE 2656 928 2608 928
WIRE 2704 928 2656 928
WIRE 2848 928 2784 928
WIRE 448 944 416 944
WIRE 1072 944 1072 816
WIRE 1072 944 992 944
WIRE 1152 944 1072 944
WIRE 1280 944 1232 944
WIRE 1360 944 1280 944
WIRE 1520 944 1440 944
WIRE 1616 944 1520 944
WIRE 1760 944 1696 944
WIRE 1936 944 1760 944
WIRE 688 960 512 960
WIRE 816 960 768 960
WIRE 928 960 816 960
WIRE 240 976 128 976
WIRE 448 976 240 976
WIRE 2320 976 2320 928
WIRE 1280 992 1280 944
WIRE 1520 992 1520 944
WIRE 1760 992 1760 944
WIRE 1968 992 1968 960
WIRE 2496 992 2496 928
WIRE 464 1008 464 992
WIRE 480 1008 480 992
WIRE 480 1008 464 1008
WIRE 496 1008 496 992
WIRE 496 1008 480 1008
WIRE 816 1008 816 960
WIRE 960 1008 960 976
WIRE 480 1024 480 1008
WIRE 416 1040 416 944
WIRE 2736 1072 2736 1040
WIRE 1280 1088 1280 1056
WIRE 1520 1088 1520 1056
WIRE 1760 1088 1760 1056
WIRE 2656 1088 2656 928
WIRE 2704 1088 2656 1088
WIRE 816 1104 816 1072
WIRE 2848 1104 2848 928
WIRE 2848 1104 2768 1104
WIRE 2912 1104 2848 1104
WIRE 2976 1104 2912 1104
WIRE 2320 1120 2320 1056
WIRE 2656 1120 2320 1120
WIRE 2704 1120 2656 1120
WIRE 2736 1168 2736 1136
WIRE 2320 1200 2320 1120
WIRE 2048 1216 1856 1216
WIRE 2656 1248 2656 1120
WIRE 2704 1248 2656 1248
WIRE 2800 1248 2768 1248
WIRE 1936 1312 1936 1280
WIRE 1856 1328 1856 1216
WIRE 1904 1328 1856 1328
WIRE 2048 1344 2048 1216
WIRE 2048 1344 1968 1344
WIRE 2176 1344 2048 1344
WIRE 2320 1344 2320 1280
WIRE 2320 1344 2176 1344
WIRE 1744 1360 1632 1360
WIRE 1904 1360 1744 1360
WIRE 1632 1408 1632 1360
WIRE 1744 1408 1744 1360
WIRE 1936 1408 1936 1376
WIRE 1632 1536 1632 1488
WIRE 1744 1536 1744 1488
FLAG 368 96 Vcc
FLAG -128 448 Vcc
FLAG 1136 528 Vcc
FLAG 1872 368 Vcc
FLAG 176 352 COM
FLAG 960 320 COM
FLAG 80 464 COM
FLAG -128 608 0
FLAG 1136 656 0
FLAG 1872 496 0
FLAG 1520 528 0
FLAG 368 224 0
FLAG 576 544 COM
FLAG 816 1104 0
FLAG 960 880 Vcc
FLAG 960 1008 0
FLAG 0 608 0
FLAG 192 176 IN
FLAG 2912 1104 OUT
FLAG 928 160 HF1
FLAG 1408 592 LF1
FLAG 2192 432 PWM1
FLAG 240 976 PWM2
FLAG 2176 928 LF3
FLAG 1632 416 LF2
FLAG 1280 1088 0
FLAG 1520 1088 0
FLAG 1968 864 Vcc
FLAG 1968 992 0
FLAG 1760 1088 0
FLAG 1632 1536 COM
FLAG 1744 1536 COM
FLAG 2176 1344 HF2
FLAG 2736 1040 Vcc
FLAG 2736 1168 0
FLAG 2496 992 COM
FLAG 1936 1280 Vcc
FLAG 1936 1408 0
FLAG 2800 1248 0
FLAG 2464 352 Vcc
FLAG 2464 480 0
FLAG 2400 496 COM
FLAG 2720 416 PWM2
FLAG 480 896 Vcc
FLAG 480 1024 0
FLAG 416 1040 COM
FLAG 1200 736 0
SYMBOL Opamps\\LTC6244 368 160 R0
SYMATTR InstName U1
SYMBOL ind2 976 192 M0
SYMATTR InstName L1
SYMATTR Value 10m
SYMBOL ind2 1616 1392 R0
SYMATTR InstName L2
SYMATTR Value 10m
SYMBOL voltage -128 128 R0
WINDOW 3 -65 191 VLeft 2
WINDOW 123 0 0 Left 2
WINDOW 39 0 0 Left 2
SYMATTR Value PULSE(-10 +10 0.1m 1u 1u 0.1m 0.5m)
SYMATTR InstName V1
SYMBOL voltage -128 480 R0
WINDOW 123 0 0 Left 2
WINDOW 39 0 0 Left 2
SYMATTR InstName V2
SYMATTR Value 5
SYMBOL res 16 176 R0
SYMATTR InstName R1
SYMATTR Value 100k
SYMBOL res 16 64 R0
SYMATTR InstName R2
SYMATTR Value 900k
SYMBOL cap 624 176 R270
WINDOW 0 32 32 VTop 2
WINDOW 3 0 32 VBottom 2
SYMATTR InstName C1
SYMATTR Value 10µ
SYMBOL res 720 176 R270
WINDOW 0 32 56 VTop 2
WINDOW 3 0 56 VBottom 2
SYMATTR InstName R4
SYMATTR Value 100
SYMBOL Opamps\\LTC6244 1136 592 R0
SYMATTR InstName U2
SYMBOL res 912 464 R270
WINDOW 0 32 56 VTop 2
WINDOW 3 0 56 VBottom 2
SYMATTR InstName R7
SYMATTR Value 10k
SYMBOL res 1120 464 R270
WINDOW 0 32 56 VTop 2
WINDOW 3 0 56 VBottom 2
SYMATTR InstName R8
SYMATTR Value 10k
SYMBOL cap 1504 448 R0
SYMATTR InstName C3
SYMATTR Value 10n
SYMBOL res 1504 304 R0
SYMATTR InstName R9
SYMATTR Value 1k
SYMBOL res 1712 464 R0
SYMATTR InstName R11
SYMATTR Value 100
SYMBOL res 1712 304 R0
SYMATTR InstName R12
SYMATTR Value 100k
SYMBOL res 560 240 R0
SYMATTR InstName R20
SYMATTR Value 10k
SYMBOL res 560 400 R0
SYMATTR InstName R21
SYMATTR Value 10k
SYMBOL res 672 976 R270
WINDOW 0 32 56 VTop 2
WINDOW 3 0 56 VBottom 2
SYMATTR InstName R15
SYMATTR Value 1k
SYMBOL cap 800 1008 R0
SYMATTR InstName C6
SYMATTR Value 10n
SYMBOL Opamps\\LTC6244 960 944 R0
SYMATTR InstName U6
SYMBOL voltage 0 480 R0
WINDOW 123 0 0 Left 2
WINDOW 39 0 0 Left 2
SYMATTR InstName V3
SYMATTR Value 2.5
SYMBOL res 1136 960 R270
WINDOW 0 32 56 VTop 2
WINDOW 3 0 56 VBottom 2
SYMATTR InstName R6
SYMATTR Value 1k
SYMBOL cap 1264 992 R0
SYMATTR InstName C2
SYMATTR Value 100p
SYMBOL res 1344 960 R270
WINDOW 0 32 56 VTop 2
WINDOW 3 0 56 VBottom 2
SYMATTR InstName R10
SYMATTR Value 1k
SYMBOL cap 1504 992 R0
SYMATTR InstName C5
SYMATTR Value 100p
SYMBOL Opamps\\LTC6244 1968 928 R0
SYMATTR InstName U7
SYMBOL res 1600 960 R270
WINDOW 0 32 56 VTop 2
WINDOW 3 0 56 VBottom 2
SYMATTR InstName R13
SYMATTR Value 1k
SYMBOL cap 1744 992 R0
SYMATTR InstName C8
SYMATTR Value 100p
SYMBOL res 1728 1392 R0
SYMATTR InstName R18
SYMATTR Value 10k
SYMBOL res 2304 960 R0
SYMATTR InstName R19
SYMATTR Value 11.1k
SYMBOL res 2304 1184 R0
SYMATTR InstName R22
SYMATTR Value 10k
SYMBOL Opamps\\LTC6244 2736 1104 R0
SYMATTR InstName U9
SYMBOL res 2688 944 R270
WINDOW 0 32 56 VTop 2
WINDOW 3 0 56 VBottom 2
SYMATTR InstName R23
SYMATTR Value 11.1k
SYMBOL res 2512 944 R270
WINDOW 0 32 56 VTop 2
WINDOW 3 0 56 VBottom 2
SYMATTR InstName R24
SYMATTR Value 10k
SYMBOL Opamps\\LTC6244 1936 1344 R0
SYMATTR InstName U10
SYMBOL cap 2704 1264 R270
WINDOW 0 32 32 VTop 2
WINDOW 3 0 32 VBottom 2
SYMATTR InstName C9
SYMATTR Value 5p
SYMBOL Comparators\\LT1719 1872 368 R0
SYMATTR InstName U11
SYMBOL Comparators\\LT1719 2464 352 R0
SYMATTR InstName U3
SYMBOL Comparators\\LT1719 480 896 R0
SYMATTR InstName U4
SYMBOL cap 1104 752 R270
WINDOW 0 32 32 VTop 2
WINDOW 3 0 32 VBottom 2
SYMATTR InstName C4
SYMATTR Value 5p
TEXT 992 328 VLeft 2 !K1 L1 L2 0.9
TEXT -248 744 Left 2 !.tran 0 1m 0 10n
TEXT 2304 544 Left 2 ;Si8410B
RECTANGLE Normal 2640 576 2288 272 2
